
Spectre (R) Circuit Simulator
Version 23.1.0.063 64bit -- 10 Jun 2023
Copyright (C) 1989-2023 Cadence Design Systems, Inc. All rights reserved worldwide. Cadence and Spectre are registered trademarks of Cadence Design Systems, Inc. All others are the property of their respective holders.

Includes RSA BSAFE(R) Cryptographic or Security Protocol Software from RSA Security, Inc.

User: huyen_k66   Host: edabk   HostID: 6F64197F   PID: 3243
Memory  available: 266.3108 GB  physical: 405.4474 GB
Linux   : CentOS Linux release 7 (Core)
CPU Type: AMD EPYC 7402 24-Core Processor
        Socket: Processors [Frequency]
        0:       0 [2800.0],  1 [1500.0],  2 [1500.0],  3 [1500.0],  4 [1500.0]
                 5 [1500.0],  6 [1500.0],  7 [2800.0],  8 [1500.0],  9 [1500.0]
                10 [1500.0], 11 [2800.0], 12 [1500.0], 13 [1500.0], 14 [1500.0]
                15 [1500.0], 16 [1500.0], 17 [2800.0], 18 [1500.0], 19 [1500.0]
                20 [1500.0], 21 [1500.0], 22 [1500.0], 23 [1500.0]
        1:      24 [2800.0], 25 [1500.0], 26 [1500.0], 27 [1500.0], 28 [1500.0]
                29 [1500.0], 30 [1500.0], 31 [1500.0], 32 [1500.0], 33 [1500.0]
                34 [1500.0], 35 [1500.0], 36 [1500.0], 37 [1500.0], 38 [1500.0]
                39 [1500.0], 40 [1500.0], 41 [2800.0], 42 [2400.0], 43 [1500.0]
                44 [2400.0], 45 [1500.0], 46 [1500.0], 47 [1500.0]
        
System load averages (1min, 5min, 15min) : 14.2 %, 13.6 %, 14.6 %


Simulating `./xcelium.d/AMSD/ams_spice_in/./.amsspice_pre.ckt' on edabk at 2:18:43 PM, Fri May 2, 2025 (process id: 3243).
Current working directory: /home/huyen_k66/Documents/PLL_UVM_MS/tb_comb/xrun_ams_sim
Environment variable:
    SPECTRE_DEFAULTS=
Command line:
    /Cadence/SPECTRE231/tools.lnx86/bin/spectre -64  \
        ./xcelium.d/AMSD/ams_spice_in/./.amsspice_pre.ckt +dcopt=0  \
        -va,amsspice_pre -ahdllibdir  \
        xcelium.d/AMSD/ams_spice_in/ahdlSimDB =log  \
        ./xcelium.d/AMSD/ams_spice_in/./.amsspice_pre.ckt.log +mts  \
        -I../ -token  \
        0001AF26C83A239465DFBB2CC00A229E73C4B63DFD3B60CB2080FE71B870359768D3A13CC50411B6749FEA2FE10B0F887DC39431F37A3ED44FD9EB2FB063238B7DC3BD10E17135D560C2BE2AEC6132CD7287ED3E890D50FB3080A83DEEB8537F10B0BF07EE7F3BCD7EEFA25F885850FB7BB09702D23C6FFB2F8FA83DED3C50FB10B0A83DED3C50FB10B0C0299CED212A78A400004299

Licensing Information:
[14:18:43.345513] Configured Lic search path (22.01-s002): 5280@192.168.32.10

Loading /Cadence/SPECTRE231/tools.lnx86/cmi/lib/64bit/5.0/libinfineon_sh.so ...
Loading /Cadence/SPECTRE231/tools.lnx86/cmi/lib/64bit/5.0/libphilips_sh.so ...
Loading /Cadence/SPECTRE231/tools.lnx86/cmi/lib/64bit/5.0/libsparam_sh.so ...
Loading /Cadence/SPECTRE231/tools.lnx86/cmi/lib/64bit/5.0/libstmodels_sh.so ...
Reading file:  /home/huyen_k66/Documents/PLL_UVM_MS/tb_comb/xrun_ams_sim/xcelium.d/AMSD/ams_spice_in/.amsspice_pre.ckt
Reading file:  /Cadence/SPECTRE231/tools.lnx86/spectre/etc/configs/spectre.cfg
Reading file:  /home/huyen_k66/Documents/PLL_UVM_MS/tb_comb/amscf.scs
Time for NDB Parsing: CPU = 180.001 ms, elapsed = 243.604 ms.
Time accumulated: CPU = 299.137 ms, elapsed = 243.612 ms.
Peak resident memory used = 86.8 Mbytes.

Licensing Information:
Lic Summary:
[14:18:43.034528] Cdslmd servers:5280@192.168.32.10
[14:18:43.034539] Feature usage summary:

